MIT License

Copyright (c) 2026 Kyeong Sun Kim

Permission is hereby granted, free of charge, to any person obtaining a copy
of this software and associated documentation files (the "Software"), to deal
in the Software without restriction, including without limitation the rights
to use, copy, modify, merge, publish, distribute, sublicense, and/or sell
copies of the Software, and to permit persons to whom the Software is
furnished to do so, subject to the following conditions:

The above copyright notice and this permission notice shall be included in all
copies or substantial portions of the Software.

THE SOFTWARE IS PROVIDED "AS IS", WITHOUT WARRANTY OF ANY KIND, EXPRESS OR
IMPLIED, INCLUDING BUT NOT LIMITED TO THE WARRANTIES OF MERCHANTABILITY,
FITNESS FOR A PARTICULAR PURPOSE AND NONINFRINGEMENT. IN NO EVENT SHALL THE
AUTHORS OR COPYRIGHT HOLDERS BE LIABLE FOR ANY CLAIM, DAMAGES OR OTHER
LIABILITY, WHETHER IN AN ACTION OF CONTRACT, TORT OR OTHERWISE, ARISING FROM,
OUT OF OR IN CONNECTION WITH THE SOFTWARE OR THE USE OR OTHER DEALINGS IN THE
SOFTWARE.

---

Additional licensing notices for third-party content redistributed in this
repository:

1. NREL reference wind turbine models in nrel_reference/openfast_rtest/ are
   distributed under their original Apache 2.0 license from the OpenFAST
   r-test suite. See https://github.com/OpenFAST/r-test

2. NREL reference wind turbine models in nrel_reference/iea_scaled/ are
   redistributed under the NREL/WISDEM reference wind turbine license
   (CC BY or similar, per each model's README).

3. Vestas V27 model in nrel_reference/vestas/V27/ is a historical baseline
   included for regression testing.

4. OpenSeesPy (BSD 3-Clause) and OpenFAST (Apache 2.0) are not redistributed
   in this repository; they are listed as runtime dependencies and users
   install them separately.

5. OptumGX is commercial software; no OptumGX binary or Python API package
   is redistributed in this repository. Scripts in op3/optumgx_interface/
   require a separate commercial or academic license to run.
